test/test_perturbation_outputs/pert_min_cost/pglib_opf_case500_tamu.m
%% MATPOWER Case Format : Version 2
function mpc = pglib_opf_case500_tamu
mpc.version = '2';

%%-----  Power Flow Data  -----%%
%% system MVA base
mpc.baseMVA = 100.0;
%% bus data
%    bus_i    type    Pd    Qd    Gs    Bs    area    Vm    Va    baseKV    zone    Vmax    Vmin
mpc.bus = [
	1	1	0.0	0.0	0.0	0.0	1	1.0	0.0	138.0	2	1.1	0.9				
	2	1	42.8	11.41	0.0	0.0	1	1.0	0.0	138.0	2	1.1	0.9				
	3	1	0.0	0.0	0.0	0.0	1	1.0	0.0	138.0	2	1.1	0.9				
	4	1	132.69	35.38	0.0	0.0	1	1.0	0.0	138.0	2	1.1	0.9				
	5	1	0.0	0.0	0.0	0.0	1	1.0	0.0	138.0	1	1.1	0.9				
	6	1	3.2099999999999995	0.86	0.0	0.0	1	1.0	0.0	138.0	1	1.1	0.9				
	7	1	0.0	0.0	0.0	0.0	1	1.0	0.0	345.0	2	1.1	0.9				
	8	1	0.0	0.0	0.0	0.0	1	1.0	0.0	138.0	2	1.1	0.9				
	9	2	0.0	0.0	0.0	0.0	1	1.0	0.0	13.8	2	1.1	0.9				
	10	1	0.0	0.0	0.0	0.0	1	1.0	0.0	138.0	2	1.1	0.9				
	11	1	2.47	0.66	0.0	0.0	1	1.0	0.0	138.0	2	1.1	0.9				
	12	1	0.0	0.0	0.0	0.0	1	1.0	0.0	138.0	1	1.1	0.9				
	13	1	37.16	9.91	0.0	0.0	1	1.0	0.0	138.0	1	1.1	0.9				
	14	1	0.0	0.0	0.0	0.0	1	1.0	0.0	345.0	1	1.1	0.9				
	15	1	0.0	0.0	0.0	0.0	1	1.0	0.0	138.0	1	1.1	0.9				
	16	2	0.0	0.0	0.0	0.0	1	1.0	0.0	13.8	1	1.1	0.9				
	17	3	0.0	0.0	0.0	0.0	1	1.0	0.0	13.8	1	1.1	0.9				
	18	2	0.0	0.0	0.0	0.0	1	1.0	0.0	13.8	1	1.1	0.9				
	19	1	0.0	0.0	0.0	0.0	1	1.0	0.0	138.0	2	1.1	0.9				
	20	1	4.54	1.21	0.0	0.0	1	1.0	0.0	138.0	2	1.1	0.9				
	21	1	0.0	0.0	0.0	0.0	1	1.0	0.0	138.0	2	1.1	0.9				
	22	1	148.7	39.65	0.0	0.0	1	1.0	0.0	138.0	2	1.1	0.9				
	23	1	0.0	0.0	0.0	0.0	1	1.0	0.0	345.0	1	1.1	0.9				
	24	1	0.0	0.0	0.0	0.0	1	1.0	0.0	138.0	1	1.1	0.9				
	25	1	2.28	0.61	0.0	0.0	1	1.0	0.0	138.0	1	1.1	0.9				
	26	1	21.66	5.78	0.0	0.0	1	1.0	0.0	138.0	1	1.1	0.9				
	27	1	0.0	0.0	0.0	50.0	1	1.0	0.0	138.0	1	1.1	0.9				
	28	1	62.93	16.78	0.0	0.0	1	1.0	0.0	138.0	1	1.1	0.9				
	29	1	0.0	0.0	0.0	0.0	1	1.0	0.0	138.0	2	1.1	0.9				
	30	1	99.97	26.66	0.0	0.0	1	1.0	0.0	138.0	2	1.1	0.9				
	31	1	0.0	0.0	0.0	100.0	1	1.0	0.0	138.0	2	1.1	0.9				
	32	1	9.76	2.6	0.0	0.0	1	1.0	0.0	138.0	2	1.1	0.9				
	33	1	0.0	0.0	0.0	0.0	1	1.0	0.0	138.0	2	1.1	0.9				
	34	1	25.0	6.67	0.0	0.0	1	1.0	0.0	138.0	2	1.1	0.9				
	35	1	0.0	0.0	0.0	0.0	1	1.0	0.0	138.0	2	1.1	0.9				
	36	1	43.35	11.56	0.0	0.0	1	1.0	0.0	138.0	2	1.1	0.9				
	37	1	0.0	0.0	0.0	0.0	1	1.0	0.0	138.0	1	1.1	0.9				
	38	1	0.13	0.03	0.0	0.0	1	1.0	0.0	138.0	1	1.1	0.9				
	39	1	0.0	0.0	0.0	0.0	1	1.0	0.0	345.0	1	1.1	0.9				
	40	1	0.0	0.0	0.0	0.0	1	1.0	0.0	138.0	1	1.1	0.9				
	41	1	57.989999999999995	15.46	0.0	0.0	1	1.0	0.0	138.0	1	1.1	0.9				
	42	1	0.0	0.0	0.0	0.0	1	1.0	0.0	138.0	2	1.1	0.9				
	43	1	4.46	1.19	0.0	0.0	1	1.0	0.0	138.0	2	1.1	0.9				
	44	1	0.0	0.0	0.0	0.0	1	1.0	0.0	138.0	2	1.1	0.9				
	45	1	2.03	0.54	0.0	0.0	1	1.0	0.0	138.0	2	1.1	0.9				
	46	1	0.0	0.0	0.0	0.0	1	1.0	0.0	138.0	1	1.1	0.9				
	47	1	43.41	11.58	0.0	0.0	1	1.0	0.0	138.0	1	1.1	0.9				
	48	1	0.0	0.0	0.0	0.0	1	1.0	0.0	138.0	1	1.1	0.9				
	49	2	0.0	0.0	0.0	0.0	1	1.0	0.0	13.8	1	1.1	0.9				
	50	2	0.0	0.0	0.0	0.0	1	1.0	0.0	13.8	1	1.1	0.9				
	51	1	0.35	0.09	0.0	0.0	1	1.0	0.0	138.0	1	1.1	0.9				
	52	1	23.39	6.24	0.0	0.0	1	1.0	0.0	138.0	1	1.1	0.9				
	53	1	0.0	0.0	0.0	0.0	1	1.0	0.0	138.0	2	1.1	0.9				
	54	1	34.81	9.28	0.0	0.0	1	1.0	0.0	138.0	2	1.1	0.9				
	55	1	0.0	0.0	0.0	0.0	1	1.0	0.0	138.0	1	1.1	0.9				
	56	1	2.25	0.6	0.0	0.0	1	1.0	0.0	138.0	1	1.1	0.9				
	57	1	0.0	0.0	0.0	0.0	1	1.0	0.0	345.0	1	1.1	0.9				
	58	1	0.0	0.0	0.0	0.0	1	1.0	0.0	138.0	1	1.1	0.9				
	59	1	140.94	37.58	0.0	0.0	1	1.0	0.0	138.0	1	1.1	0.9				
	60	1	0.0	0.0	0.0	0.0	1	1.0	0.0	138.0	1	1.1	0.9				
	61	1	0.2	0.05	0.0	0.0	1	1.0	0.0	138.0	1	1.1	0.9				
	62	1	0.0	0.0	0.0	0.0	1	1.0	0.0	138.0	1	1.1	0.9				
	63	1	0.0	0.0	0.0	0.0	1	1.0	0.0	13.8	1	1.1	0.9				
	64	1	34.78	9.27	0.0	0.0	1	1.0	0.0	138.0	1	1.1	0.9				
	65	1	0.0	0.0	0.0	0.0	1	1.0	0.0	345.0	1	1.1	0.9				
	66	1	0.0	0.0	0.0	0.0	1	1.0	0.0	138.0	1	1.1	0.9				
	67	1	4.57	1.22	0.0	0.0	1	1.0	0.0	138.0	1	1.1	0.9				
	68	1	0.0	0.0	0.0	0.0	1	1.0	0.0	138.0	1	1.1	0.9				
	69	1	16.96	4.52	0.0	0.0	1	1.0	0.0	138.0	1	1.1	0.9				
	70	1	0.0	0.0	0.0	0.0	1	1.0	0.0	138.0	1	1.1	0.9				
	71	2	0.0	0.0	0.0	0.0	1	1.0	0.0	13.8	1	1.1	0.9				
	72	2	0.0	0.0	0.0	0.0	1	1.0	0.0	13.8	1	1.1	0.9				
	73	2	0.0	0.0	0.0	0.0	1	1.0	0.0	13.8	1	1.1	0.9				
	74	1	0.0	0.0	0.0	0.0	1	1.0	0.0	138.0	2	1.1	0.9				
	75	1	5.3	1.41	0.0	0.0	1	1.0	0.0	138.0	2	1.1	0.9				
	76	1	0.0	0.0	0.0	0.0	1	1.0	0.0	138.0	1	1.1	0.9				
	77	1	6.950000000000001	1.8500000000000003	0.0	0.0	1	1.0	0.0	138.0	1	1.1	0.9				
	78	1	0.0	0.0	0.0	0.0	1	1.0	0.0	138.0	1	1.1	0.9				
	79	1	0.38	0.1	0.0	0.0	1	1.0	0.0	138.0	1	1.1	0.9				
	80	1	0.0	0.0	0.0	0.0	1	1.0	0.0	345.0	2	1.1	0.9				
	81	1	0.0	0.0	0.0	0.0	1	1.0	0.0	138.0	2	1.1	0.9				
	82	2	0.0	0.0	0.0	0.0	1	1.0	0.0	13.8	2	1.1	0.9				
	83	1	0.0	0.0	0.0	0.0	1	1.0	0.0	138.0	2	1.1	0.9				
	84	1	61.41	16.38	0.0	0.0	1	1.0	0.0	138.0	2	1.1	0.9				
	85	1	0.0	0.0	0.0	0.0	1	1.0	0.0	138.0	2	1.1	0.9				
	86	1	17.59	4.69	0.0	0.0	1	1.0	0.0	138.0	2	1.1	0.9				
	87	1	0.0	0.0	0.0	0.0	1	1.0	0.0	138.0	1	1.1	0.9				
	88	1	5.25	1.4	0.0	0.0	1	1.0	0.0	138.0	1	1.1	0.9				
	89	1	0.0	0.0	0.0	0.0	1	1.0	0.0	138.0	2	1.1	0.9				
	90	1	5.9	1.5700000000000003	0.0	0.0	1	1.0	0.0	138.0	2	1.1	0.9				
	91	1	0.0	0.0	0.0	0.0	1	1.0	0.0	138.0	1	1.1	0.9				
	92	1	65.03	17.34	0.0	0.0	1	1.0	0.0	138.0	1	1.1	0.9				
	93	1	0.0	0.0	0.0	0.0	1	1.0	0.0	138.0	2	1.1	0.9				
	94	1	5.21	1.39	0.0	0.0	1	1.0	0.0	138.0	2	1.1	0.9				
	95	1	0.0	0.0	0.0	0.0	1	1.0	0.0	138.0	1	1.1	0.9				
	96	1	34.0	9.07	0.0	0.0	1	1.0	0.0	138.0	1	1.1	0.9				
	97	1	0.0	0.0	0.0	0.0	1	1.0	0.0	138.0	1	1.1	0.9				
	98	1	37.09	9.89	0.0	0.0	1	1.0	0.0	138.0	1	1.1	0.9				
	99	1	0.0	0.0	0.0	0.0	1	1.0	0.0	138.0	1	1.1	0.9				
	100	1	13.52	3.61	0.0	0.0	1	1.0	0.0	138.0	1	1.1	0.9				
	101	1	0.89	0.24	0.0	0.0	1	1.0	0.0	138.0	1	1.1	0.9				
	102	1	0.0	0.0	0.0	0.0	1	1.0	0.0	138.0	1	1.1	0.9				
	103	1	38.8	10.35	0.0	0.0	1	1.0	0.0	138.0	1	1.1	0.9				
	104	1	0.0	0.0	0.0	0.0	1	1.0	0.0	138.0	2	1.1	0.9				
	105	1	80.33	21.42	0.0	0.0	1	1.0	0.0	138.0	2	1.1	0.9				
	106	1	0.0	0.0	0.0	0.0	1	1.0	0.0	138.0	2	1.1	0.9				
	107	1	16.01	4.27	0.0	0.0	1	1.0	0.0	138.0	2	1.1	0.9				
	108	1	0.0	0.0	0.0	0.0	1	1.0	0.0	138.0	1	1.1	0.9				
	109	1	47.58	12.689999999999998	0.0	0.0	1	1.0	0.0	138.0	1	1.1	0.9				
	110	1	0.0	0.0	0.0	50.0	1	1.0	0.0	138.0	1	1.1	0.9				
	111	1	62.29	16.61	0.0	0.0	1	1.0	0.0	138.0	1	1.1	0.9				
	112	1	0.0	0.0	0.0	0.0	1	1.0	0.0	138.0	2	1.1	0.9				
	113	1	45.99	12.26	0.0	0.0	1	1.0	0.0	138.0	2	1.1	0.9				
	114	1	0.0	0.0	0.0	0.0	1	1.0	0.0	138.0	2	1.1	0.9				
	115	1	5.06	1.35	0.0	0.0	1	1.0	0.0	138.0	2	1.1	0.9				
	116	1	3.1	0.83	0.0	0.0	1	1.0	0.0	138.0	2	1.1	0.9				
	117	1	0.0	0.0	0.0	0.0	1	1.0	0.0	138.0	1	1.1	0.9				
	118	1	8.83	2.36	0.0	0.0	1	1.0	0.0	138.0	1	1.1	0.9				
	119	1	0.0	0.0	0.0	0.0	1	1.0	0.0	138.0	1	1.1	0.9				
	120	1	31.65	8.44	0.0	0.0	1	1.0	0.0	138.0	1	1.1	0.9				
	121	1	0.0	0.0	0.0	0.0	1	1.0	0.0	138.0	2	1.1	0.9				
	122	1	53.36	14.23	0.0	0.0	1	1.0	0.0	138.0	2	1.1	0.9				
	123	1	0.0	0.0	0.0	0.0	1	1.0	0.0	345.0	1	1.1	0.9				
	124	1	0.0	0.0	0.0	0.0	1	1.0	0.0	138.0	1	1.1	0.9				
	125	1	0.0	0.0	0.0	0.0	1	1.0	0.0	13.8	1	1.1	0.9				
	126	1	0.0	0.0	0.0	0.0	1	1.0	0.0	13.8	1	1.1	0.9				
	127	2	0.0	0.0	0.0	0.0	1	1.0	0.0	13.8	1	1.1	0.9				
	128	2	0.0	0.0	0.0	0.0	1	1.0	0.0	13.8	1	1.1	0.9				
	129	1	0.0	0.0	0.0	0.0	1	1.0	0.0	138.0	1	1.1	0.9				
	130	1	103.24	27.529999999999998	0.0	0.0	1	1.0	0.0	138.0	1	1.1	0.9				
	131	1	0.0	0.0	0.0	0.0	1	1.0	0.0	138.0	1	1.1	0.9				
	132	1	25.2	6.72	0.0	0.0	1	1.0	0.0	138.0	1	1.1	0.9				
	133	1	0.0	0.0	0.0	0.0	1	1.0	0.0	138.0	1	1.1	0.9				
	134	1	42.65	11.37	0.0	0.0	1	1.0	0.0	138.0	1	1.1	0.9				
	135	1	0.0	0.0	0.0	0.0	1	1.0	0.0	138.0	2	1.1	0.9				
	136	1	26.76	7.139999999999999	0.0	0.0	1	1.0	0.0	138.0	2	1.1	0.9				
	137	1	0.0	0.0	0.0	0.0	1	1.0	0.0	138.0	1	1.1	0.9				
	138	1	78.71	20.99	0.0	0.0	1	1.0	0.0	138.0	1	1.1	0.9				
	139	1	0.0	0.0	0.0	0.0	1	1.0	0.0	138.0	1	1.1	0.9				
	140	1	0.26	0.07	0.0	0.0	1	1.0	0.0	138.0	1	1.1	0.9				
	141	1	0.0	0.0	0.0	50.0	1	1.0	0.0	138.0	1	1.1	0.9				
	142	1	161.34	43.02	0.0	0.0	1	1.0	0.0	138.0	1	1.1	0.9				
	143	1	0.0	0.0	0.0	0.0	1	1.0	0.0	138.0	1	1.1	0.9				
	144	2	0.0	0.0	0.0	0.0	1	1.0	0.0	13.8	1	1.1	0.9				
	145	2	0.0	0.0	0.0	0.0	1	1.0	0.0	13.8	1	1.1	0.9				
	146	1	0.0	0.0	0.0	0.0	1	1.0	0.0	345.0	2	1.1	0.9				
	147	1	0.0	0.0	0.0	0.0	1	1.0	0.0	138.0	2	1.1	0.9				
	148	1	57.42	15.310000000000002	0.0	0.0	1	1.0	0.0	138.0	2	1.1	0.9				
	149	1	0.0	0.0	0.0	0.0	1	1.0	0.0	138.0	2	1.1	0.9				
	150	1	1.5	0.4	0.0	0.0	1	1.0	0.0	138.0	2	1.1	0.9				
	151	1	0.0	0.0	0.0	0.0	1	1.0	0.0	345.0	1	1.1	0.9				
	152	1	0.0	0.0	0.0	70.0	1	1.0	0.0	138.0	1	1.1	0.9				
	153	1	93.15	24.84	0.0	0.0	1	1.0	0.0	138.0	1	1.1	0.9				
	154	1	0.0	0.0	0.0	0.0	1	1.0	0.0	138.0	1	1.1	0.9				
	155	1	66.84	17.82	0.0	0.0	1	1.0	0.0	138.0	1	1.1	0.9				
	156	1	0.0	0.0	0.0	0.0	1	1.0	0.0	138.0	1	1.1	0.9				
	157	1	105.45	28.12	0.0	0.0	1	1.0	0.0	138.0	1	1.1	0.9				
	158	1	0.0	0.0	0.0	0.0	1	1.0	0.0	138.0	2	1.1	0.9				
	159	1	22.85	6.09	0.0	0.0	1	1.0	0.0	138.0	2	1.1	0.9				
	160	1	0.0	0.0	0.0	0.0	1	1.0	0.0	138.0	2	1.1	0.9				
	161	1	25.95	6.92	0.0	0.0	1	1.0	0.0	138.0	2	1.1	0.9				
	162	1	0.0	0.0	0.0	0.0	1	1.0	0.0	345.0	2	1.1	0.9				
	163	1	0.0	0.0	0.0	0.0	1	1.0	0.0	138.0	2	1.1	0.9				
	164	1	98.15	26.170000000000005	0.0	0.0	1	1.0	0.0	138.0	2	1.1	0.9				
	165	1	0.0	0.0	0.0	0.0	1	1.0	0.0	345.0	1	1.1	0.9				
	166	1	0.0	0.0	0.0	0.0	1	1.0	0.0	138.0	1	1.1	0.9				
	167	2	0.0	0.0	0.0	0.0	1	1.0	0.0	13.8	1	1.1	0.9				
	168	2	0.0	0.0	0.0	0.0	1	1.0	0.0	13.8	1	1.1	0.9				
	169	2	0.0	0.0	0.0	0.0	1	1.0	0.0	13.8	1	1.1	0.9				
	170	1	0.0	0.0	0.0	0.0	1	1.0	0.0	138.0	1	1.1	0.9				
	171	1	12.38	3.3000000000000003	0.0	0.0	1	1.0	0.0	138.0	1	1.1	0.9				
	172	1	0.0	0.0	0.0	0.0	1	1.0	0.0	138.0	1	1.1	0.9				
	173	1	3.1400000000000006	0.84	0.0	0.0	1	1.0	0.0	138.0	1	1.1	0.9				
	174	1	7.3	1.95	0.0	0.0	1	1.0	0.0	138.0	1	1.1	0.9				
	175	1	0.0	0.0	0.0	0.0	1	1.0	0.0	345.0	1	1.1	0.9				
	176	1	0.0	0.0	0.0	0.0	1	1.0	0.0	138.0	1	1.1	0.9				
	177	1	8.78	2.34	0.0	0.0	1	1.0	0.0	138.0	1	1.1	0.9				
	178	1	6.81	1.82	0.0	0.0	1	1.0	0.0	138.0	1	1.1	0.9				
	179	1	0.0	0.0	0.0	0.0	1	1.0	0.0	138.0	2	1.1	0.9				
	180	1	14.14	3.7699999999999996	0.0	0.0	1	1.0	0.0	138.0	2	1.1	0.9				
	181	1	0.0	0.0	0.0	60.0	1	1.0	0.0	138.0	1	1.1	0.9				
	182	1	82.61	22.03	0.0	0.0	1	1.0	0.0	138.0	1	1.1	0.9				
	183	1	0.0	0.0	0.0	0.0	1	1.0	0.0	138.0	1	1.1	0.9				
	184	1	30.18	8.05	0.0	0.0	1	1.0	0.0	138.0	1	1.1	0.9				
	185	1	0.0	0.0	0.0	0.0	1	1.0	0.0	138.0	1	1.1	0.9				
	186	1	45.35	12.09	0.0	0.0	1	1.0	0.0	138.0	1	1.1	0.9				
	187	1	0.0	0.0	0.0	0.0	1	1.0	0.0	138.0	2	1.1	0.9				
	188	1	11.05	2.95	0.0	0.0	1	1.0	0.0	138.0	2	1.1	0.9				
	189	1	0.0	0.0	0.0	0.0	1	1.0	0.0	138.0	2	1.1	0.9				
	190	1	14.069999999999999	3.75	0.0	0.0	1	1.0	0.0	138.0	2	1.1	0.9				
	191	1	0.0	0.0	0.0	0.0	1	1.0	0.0	138.0	2	1.1	0.9				
	192	1	16.44	4.38	0.0	0.0	1	1.0	0.0	138.0	2	1.1	0.9				
	193	1	0.0	0.0	0.0	0.0	1	1.0	0.0	138.0	2	1.1	0.9				
	194	1	28.689999999999998	7.6499999999999995	0.0	0.0	1	1.0	0.0	138.0	2	1.1	0.9				
	195	1	0.0	0.0	0.0	0.0	1	1.0	0.0	345.0	2	1.1	0.9				
	196	1	0.0	0.0	0.0	0.0	1	1.0	0.0	138.0	2	1.1	0.9				
	197	2	0.0	0.0	0.0	0.0	1	1.0	0.0	13.8	2	1.1	0.9				
	198	2	0.0	0.0	0.0	0.0	1	1.0	0.0	13.8	2	1.1	0.9				
	199	1	86.39	23.04	0.0	0.0	1	1.0	0.0	138.0	2	1.1	0.9				
	200	1	0.0	0.0	0.0	0.0	1	1.0	0.0	138.0	2	1.1	0.9				
...
];

%% generator data
%    bus    Pg    Qg    Qmax    Qmin    Vg    mBase    status    Pmax    Pmin    Pc1    Pc2    Qc1min    Qc1max    Qc2min    Qc2max    ramp_agc    ramp_10    ramp_30    ramp_q    apf
mpc.gen = [
	9	501.67	132.75	359.66	-94.16	1.0	926.16	1	771.8	231.54															
	16	288.89	63.56	163.56	-36.44	1.0	533.34	1	444.45	133.33															
	17	577.785	127.115	327.12	-72.89	1.0	1066.68	1	888.9	266.67															
	18	102.44	22.54	57.99999999999999	-12.920000000000002	1.0	189.12	1	157.6	47.28															
	49	0.845	0.22500000000000003	0.61	-0.16	1.0	1.56	1	1.3	0.39															
	50	1.69	0.445	1.21	-0.32	1.0	3.12	1	2.6	0.78															
	63	0.0	0.0	1.63	-0.36	1.0	3.84	0	3.2	0.96															
	71	2.6	0.67	1.54	-0.2	1.0	4.8	1	4.0	1.2															
	72	1.3	0.335	0.77	-0.1	1.0	2.4	1	2.0	0.6															
	73	0.91	0.23499999999999996	0.54	-0.07	1.0	1.68	1	1.4	0.42															
	82	235.23499999999999	60.62	138.97	-17.73	1.0	434.28	1	361.9	108.57															
	125	0.0	0.0	62.21	-7.9399999999999995	1.0	194.4	0	162.0	48.6															
	126	0.0	0.0	62.21	-7.9399999999999995	1.0	194.4	0	162.0	48.6															
	127	105.3	27.135000000000005	62.21	-7.9399999999999995	1.0	194.4	1	162.0	48.6															
	128	105.3	27.135000000000005	62.21	-7.9399999999999995	1.0	194.4	1	162.0	48.6															
	144	391.655	86.165	221.74	-49.41	1.0	723.06	1	602.55	180.76															
	145	391.655	86.165	221.74	-49.41	1.0	723.06	1	602.55	180.76															
	167	125.77500000000002	32.41	74.3	-9.48	1.0	232.2	1	193.5	58.050000000000004															
	168	125.77500000000002	32.41	74.3	-9.48	1.0	232.2	1	193.5	58.050000000000004															
	169	251.55000000000004	64.825	148.61	-18.96	1.0	464.4	1	387.0	116.10000000000001															
	197	190.84	50.5	136.82	-35.82	1.0	352.32	1	293.6	88.08															
	198	134.745	35.655	96.6	-25.290000000000003	1.0	248.76	1	207.29999999999998	62.19															
	222	3.38	0.8750000000000001	2.0	-0.25	1.0	6.24	1	5.2	1.56															
	223	11.7	3.015	6.909999999999999	-0.88	1.0	21.6	1	18.0	5.4															
	224	332.28	85.625	196.3	-25.05	1.0	613.44	1	511.2	153.36															
	225	334.62	86.225	197.68	-25.230000000000004	1.0	617.76	1	514.8	154.44															
	231	1.8849999999999998	0.5	1.35	-0.35	1.0	3.48	1	2.9	0.8699999999999999															
	248	0.0	0.0	67.8	-14.790000000000001	1.0	159.84	0	133.2	39.96															
	249	0.0	0.0	67.8	-14.790000000000001	1.0	159.84	0	133.2	39.96															
	250	0.0	0.0	271.2	-59.14	1.0	639.36	0	532.8	159.84															
	254	0.0	0.0	1.91	-0.5	1.0	4.92	0	4.1	1.23															
	255	0.0	0.0	1.54	-0.4	1.0	3.96	0	3.3000000000000003	0.9899999999999999															
	256	0.0	0.0	1.35	-0.35	1.0	3.48	0	2.9	0.8699999999999999															
	257	0.0	0.0	2.52	-0.66	1.0	6.48	0	5.4	1.6200000000000003															
	258	0.715	0.19	0.51	-0.13	1.0	1.32	1	1.1	0.33															
	264	0.0	0.0	19.95	-4.35	1.0	47.04	0	39.2	11.76															
	265	0.0	0.0	5.4	-1.18	1.0	12.72	0	10.6	3.18															
	275	0.0	0.0	51.51	-11.23	1.0	121.44	0	101.2	30.36															
	301	1.8849999999999998	0.5	1.35	-0.35	1.0	3.48	1	2.9	0.8699999999999999															
	302	1.8849999999999998	0.5	1.35	-0.35	1.0	3.48	1	2.9	0.8699999999999999															
	305	0.65	0.165	0.38	-0.05	1.0	1.2	1	1.0	0.3															
	306	1.56	0.4	0.9199999999999999	-0.12	1.0	2.88	1	2.4	0.72															
	319	27.495000000000005	7.085	16.24	-2.07	1.0	50.76	1	42.3	12.689999999999998															
	350	9.75	2.51	5.76	-0.74	1.0	18.0	1	15.0	4.5															
	351	4.03	1.04	2.38	-0.3	1.0	7.44	1	6.2	1.86															
	352	9.36	2.41	5.53	-0.71	1.0	17.28	1	14.400000000000002	4.32															
	353	48.1	12.395	28.42	-3.63	1.0	88.8	1	74.0	22.2															
	361	0.0	0.0	0.8100000000000002	-0.18	1.0	1.92	0	1.6	0.48															
	362	0.0	0.0	5.6	-1.22	1.0	13.2	0	11.0	3.3000000000000003															
	363	0.0	0.0	1.63	-0.36	1.0	3.84	0	3.2	0.96															
	388	0.0	0.0	5.09	-1.11	1.0	12.0	0	10.0	3.0															
	389	0.0	0.0	88.23	-19.24	1.0	208.0	0	173.33	52.0															
	390	0.0	0.0	88.23	-19.24	1.0	208.0	0	173.33	52.0															
	391	0.0	0.0	88.23	-19.24	1.0	208.0	0	173.33	52.0															
	392	0.0	0.0	59.25	-12.920000000000002	1.0	139.68	0	116.40000000000002	34.92															
	393	0.0	0.0	59.25	-12.920000000000002	1.0	139.68	0	116.40000000000002	34.92															
	394	0.0	0.0	59.25	-12.920000000000002	1.0	139.68	0	116.40000000000002	34.92															
	395	0.0	0.0	59.25	-12.920000000000002	1.0	139.68	0	116.40000000000002	34.92															
	396	0.0	0.0	59.25	-12.920000000000002	1.0	139.68	0	116.40000000000002	34.92															
	409	0.0	0.0	50.9	-11.1	1.0	120.0	0	100.0	30.0															
	410	89.015	27.255000000000003	69.71	-15.2	1.0	164.34	1	136.95	41.08															
	411	89.015	27.255000000000003	69.71	-15.2	1.0	164.34	1	136.95	41.08															
	412	89.015	27.255000000000003	69.71	-15.2	1.0	164.34	1	136.95	41.08															
	413	89.015	27.255000000000003	69.71	-15.2	1.0	164.34	1	136.95	41.08															
	414	0.0	0.0	56.55	-12.33	1.0	133.32	0	111.1	33.33															
	430	0.65	0.165	0.38	-0.05	1.0	1.2	1	1.0	0.3															
	431	2.145	0.555	1.27	-0.16	1.0	3.96	1	3.3000000000000003	0.9899999999999999															
	432	0.78	0.2	0.45999999999999996	-0.06	1.0	1.44	1	1.2	0.36															
	433	4.355	1.12	2.57	-0.33	1.0	8.04	1	6.7	2.01															
	434	2.795	0.72	1.6500000000000001	-0.21	1.0	5.16	1	4.3	1.29															
	435	0.0	0.0	75.65	-9.65	1.0	236.4	0	197.0	59.099999999999994															
	436	0.0	0.0	75.65	-9.65	1.0	236.4	0	197.0	59.099999999999994															
	437	128.05	33.0	75.65	-9.65	1.0	236.4	1	197.0	59.099999999999994															
	438	128.05	33.0	75.65	-9.65	1.0	236.4	1	197.0	59.099999999999994															
	439	128.05	33.0	75.65	-9.65	1.0	236.4	1	197.0	59.099999999999994															
	442	0.0	0.0	54.97	-11.99	1.0	129.6	0	108.0	32.4															
	443	0.0	0.0	89.07	-19.43	1.0	210.0	0	175.0	52.5															
	444	0.0	0.0	1.68	-0.37	1.0	3.96	0	3.3000000000000003	0.9899999999999999															
	455	144.84	44.345	113.42000000000002	-24.73	1.0	267.4	1	222.82999999999998	66.85															
	456	289.685	88.685	226.84000000000003	-49.47	1.0	534.8	1	445.6700000000001	133.7															
	458	71.24	0.0	0.0	0.0	1.0	131.52	1	109.59999999999998	32.88															
	463	0.0	0.0	3.36	-0.88	1.0	8.64	0	7.200000000000001	2.16															
	480	36.4	9.38	21.5	-2.74	1.0	67.2	1	56.00000000000001	16.8															
	481	29.25	7.535	17.28	-2.21	1.0	54.0	1	45.0	13.5															
	482	29.25	7.535	17.28	-2.21	1.0	54.0	1	45.0	13.5															
	483	15.6	4.02	9.22	-1.18	1.0	28.8	1	24.0	7.200000000000001															
	484	18.2	4.69	10.75	-1.37	1.0	33.6	1	28.000000000000004	8.4															
	494	0.0	0.0	2.7	-0.71	1.0	6.96	0	5.8	1.7399999999999998															
	497	39.0	10.05	23.04	-2.94	1.0	72.0	1	60.0	18.0															
	498	11.7	3.015	6.909999999999999	-0.88	1.0	21.6	1	18.0	5.4															
];

%% branch data
%    f_bus    t_bus    r    x    b    rateA    rateB    rateC    ratio    angle    status    angmin    angmax
mpc.branch = [
	2	1	0.000531	0.00314	0.0	76.5	76.5	76.5	0	0	1	-29.999999999999996	29.999999999999996								
	44	1	0.005479	0.050257	0.01781	320.29	320.29	320.29	0	0	1	-29.999999999999996	29.999999999999996								
	421	1	0.005369	0.051555	0.01664	320.29	320.29	320.29	0	0	1	-29.999999999999996	29.999999999999996								
	4	3	0.000692	0.003518	0.0	225.06	225.06	225.06	0	0	1	-29.999999999999996	29.999999999999996								
	62	3	0.002718	0.026098	0.00842	320.29	320.29	320.29	0	0	1	-29.999999999999996	29.999999999999996								
	3	479	0.007258	0.069699	0.0225	320.29	320.29	320.29	0	0	1	-29.999999999999996	29.999999999999996								
	6	5	0.000556	0.003563	0.0	4.49	4.49	4.49	0	0	1	-29.999999999999996	29.999999999999996								
	316	5	0.002445	0.02348	0.00758	320.29	320.29	320.29	0	0	1	-29.999999999999996	29.999999999999996								
	401	5	0.004886	0.04692	0.01515	320.29	320.29	320.29	0	0	1	-29.999999999999996	29.999999999999996								
	8	7	0.000355	0.0129	0.0	567.0	567.0	567.0	1.0	0.0	1	-29.999999999999996	29.999999999999996								
	9	7	0.00012	0.01362	0.0	680.0	680.0	680.0	1.0	0.0	1	-29.999999999999996	29.999999999999996								
	9	7	0.00012	0.01362	0.0	680.0	680.0	680.0	1.0	0.0	1	-29.999999999999996	29.999999999999996								
	7	232	0.001119	0.014808	0.31205	1493.89	1493.89	1493.89	0	0	1	-29.999999999999996	29.999999999999996								
	7	262	0.000947	0.013749	0.23994	1493.89	1493.89	1493.89	0	0	1	-29.999999999999996	29.999999999999996								
	8	287	0.003727	0.035786	0.01155	320.29	320.29	320.29	0	0	1	-29.999999999999996	29.999999999999996								
	8	457	0.001974	0.018955	0.00612	320.29	320.29	320.29	0	0	1	-29.999999999999996	29.999999999999996								
	11	10	0.000655	0.003201	0.0	3.9599999999999995	3.9599999999999995	3.9599999999999995	0	0	1	-29.999999999999996	29.999999999999996								
	342	10	0.002825	0.027123	0.00876	320.29	320.29	320.29	0	0	1	-29.999999999999996	29.999999999999996								
	10	349	0.001402	0.01346	0.00434	320.29	320.29	320.29	0	0	1	-29.999999999999996	29.999999999999996								
	13	12	0.000623	0.003134	0.0	65.5	65.5	65.5	0	0	1	-29.999999999999996	29.999999999999996								
	12	216	0.003962	0.038048	0.01228	320.29	320.29	320.29	0	0	1	-29.999999999999996	29.999999999999996								
	12	304	0.00231	0.021191	0.00751	320.29	320.29	320.29	0	0	1	-29.999999999999996	29.999999999999996								
	12	441	0.001565	0.015025	0.00485	320.29	320.29	320.29	0	0	1	-29.999999999999996	29.999999999999996								
	15	14	0.000208	0.01122	0.0	682.0	682.0	682.0	1.0	0.0	1	-29.999999999999996	29.999999999999996								
	16	14	0.000326	0.01202	0.0	596.0	596.0	596.0	1.0	0.0	1	-29.999999999999996	29.999999999999996								
	17	14	0.000279	0.01438	0.0	674.0	674.0	674.0	1.0	0.0	1	-29.999999999999996	29.999999999999996								
	17	14	0.000354	0.01438	0.0	674.0	674.0	674.0	1.0	0.0	1	-29.999999999999996	29.999999999999996								
	18	14	0.001417	0.05115	0.0	340.0	340.0	340.0	1.0	0.0	1	-29.999999999999996	29.999999999999996								
	386	14	0.000317	0.004547	0.08136	1493.89	1493.89	1493.89	0	0	1	-29.999999999999996	29.999999999999996								
	386	14	0.00032	0.00455	0.08136	1493.9	1493.9	1493.9	0	0	1	-29.999999999999996	29.999999999999996								
	15	91	0.004799	0.046085	0.01488	320.29	320.29	320.29	0	0	1	-29.999999999999996	29.999999999999996								
	15	230	0.010894	0.104607	0.03377	320.29	320.29	320.29	0	0	1	-29.999999999999996	29.999999999999996								
	367	15	0.001918	0.018416	0.00594	320.29	320.29	320.29	0	0	1	-29.999999999999996	29.999999999999996								
	15	369	0.001854	0.01701	0.00603	320.29	320.29	320.29	0	0	1	-29.999999999999996	29.999999999999996								
	15	473	0.009225	0.084621	0.02999	320.29	320.29	320.29	0	0	1	-29.999999999999996	29.999999999999996								
	20	19	0.000541	0.003886	0.0	7.53	7.53	7.53	0	0	1	-29.999999999999996	29.999999999999996								
	19	112	0.004722	0.045345	0.01464	320.29	320.29	320.29	0	0	1	-29.999999999999996	29.999999999999996								
	193	19	0.002221	0.021323	0.00688	320.29	320.29	320.29	0	0	1	-29.999999999999996	29.999999999999996								
	19	272	0.002293	0.02202	0.00711	320.29	320.29	320.29	0	0	1	-29.999999999999996	29.999999999999996								
	22	21	0.000587	0.003174	0.0	254.15	254.15	254.15	0	0	1	-29.999999999999996	29.999999999999996								
	21	112	0.005092	0.048896	0.01578	320.29	320.29	320.29	0	0	1	-29.999999999999996	29.999999999999996								
	21	196	0.002207	0.020247	0.00718	320.29	320.29	320.29	0	0	1	-29.999999999999996	29.999999999999996								
	24	23	0.00033	0.01764	0.0	626.0	626.0	626.0	1.0	0.0	1	-29.999999999999996	29.999999999999996								
	151	23	0.000182	0.002607	0.04665	1493.89	1493.89	1493.89	0	0	1	-29.999999999999996	29.999999999999996								
	23	386	0.001642	0.023851	0.41623	1493.89	1493.89	1493.89	0	0	1	-29.999999999999996	29.999999999999996								
	23	464	0.000947	0.012532	0.26411	1493.89	1493.89	1493.89	0	0	1	-29.999999999999996	29.999999999999996								
	23	471	0.000532	0.007041	0.14837	1493.89	1493.89	1493.89	0	0	1	-29.999999999999996	29.999999999999996								
	25	24	0.000613	0.003629	0.0	3.56	3.56	3.56	0	0	1	-29.999999999999996	29.999999999999996								
	26	24	0.000563	0.003729	0.0	29.460000000000004	29.460000000000004	29.460000000000004	0	0	1	-29.999999999999996	29.999999999999996								
	210	24	0.002218	0.020344	0.00721	320.29	320.29	320.29	0	0	1	-29.999999999999996	29.999999999999996								
	24	360	0.002365	0.022714	0.00733	320.29	320.29	320.29	0	0	1	-29.999999999999996	29.999999999999996								
	28	27	0.000687	0.003963	0.0	108.61000000000001	108.61000000000001	108.61000000000001	0	0	1	-29.999999999999996	29.999999999999996								
	27	68	0.005607	0.053845	0.01738	320.29	320.29	320.29	0	0	1	-29.999999999999996	29.999999999999996								
	27	382	0.00337	0.030912	0.01095	320.29	320.29	320.29	0	0	1	-29.999999999999996	29.999999999999996								
	30	29	0.000616	0.003298	0.0	156.98	156.98	156.98	0	0	1	-29.999999999999996	29.999999999999996								
	454	29	0.00247	0.022656	0.00803	320.29	320.29	320.29	0	0	1	-29.999999999999996	29.999999999999996								
	29	491	0.005607	0.053837	0.01738	320.29	320.29	320.29	0	0	1	-29.999999999999996	29.999999999999996								
	32	31	0.000625	0.003429	0.0	15.7	15.7	15.7	0	0	1	-29.999999999999996	29.999999999999996								
	31	85	0.005303	0.050926	0.01644	320.29	320.29	320.29	0	0	1	-29.999999999999996	29.999999999999996								
	104	31	0.005526	0.053062	0.01713	320.29	320.29	320.29	0	0	1	-29.999999999999996	29.999999999999996								
	31	189	0.005707	0.0548	0.01769	320.29	320.29	320.29	0	0	1	-29.999999999999996	29.999999999999996								
	31	205	0.007797	0.074869	0.02417	320.29	320.29	320.29	0	0	1	-29.999999999999996	29.999999999999996								
	31	218	0.008273	0.079446	0.02565	320.29	320.29	320.29	0	0	1	-29.999999999999996	29.999999999999996								
	267	31	0.004897	0.047021	0.01518	320.29	320.29	320.29	0	0	1	-29.999999999999996	29.999999999999996								
	34	33	0.000624	0.003284	0.0	43.35	43.35	43.35	0	0	1	-29.999999999999996	29.999999999999996								
	83	33	0.005287	0.050764	0.01639	320.29	320.29	320.29	0	0	1	-29.999999999999996	29.999999999999996								
	112	33	0.007061	0.067808	0.02189	320.29	320.29	320.29	0	0	1	-29.999999999999996	29.999999999999996								
	36	35	0.000583	0.00303	0.0	62.86999999999999	62.86999999999999	62.86999999999999	0	0	1	-29.999999999999996	29.999999999999996								
	191	35	0.004038	0.037042	0.01313	320.29	320.29	320.29	0	0	1	-29.999999999999996	29.999999999999996								
	35	399	0.005636	0.054123	0.01747	320.29	320.29	320.29	0	0	1	-29.999999999999996	29.999999999999996								
	38	37	0.000546	0.003823	0.0	0.18	0.18	0.18	0	0	1	-29.999999999999996	29.999999999999996								
	76	37	0.001474	0.014156	0.00457	320.29	320.29	320.29	0	0	1	-29.999999999999996	29.999999999999996								
	37	176	0.003039	0.02918	0.00942	320.29	320.29	320.29	0	0	1	-29.999999999999996	29.999999999999996								
	40	39	0.0007	0.02531	0.0	428.0	428.0	428.0	1.0	0.0	1	-29.999999999999996	29.999999999999996								
	39	332	0.000403	0.005786	0.10355	1493.89	1493.89	1493.89	0	0	1	-29.999999999999996	29.999999999999996								
	39	428	0.000521	0.006898	0.14538	1493.89	1493.89	1493.89	0	0	1	-29.999999999999996	29.999999999999996								
	41	40	0.000631	0.003923	0.0	97.47	97.47	97.47	0	0	1	-29.999999999999996	29.999999999999996								
	40	131	0.002909	0.026681	0.00946	320.29	320.29	320.29	0	0	1	-29.999999999999996	29.999999999999996								
	43	42	0.000542	0.003119	0.0	7.7	7.7	7.7	0	0	1	-29.999999999999996	29.999999999999996								
	81	42	0.002361	0.02166	0.00768	320.29	320.29	320.29	0	0	1	-29.999999999999996	29.999999999999996								
	42	191	0.006368	0.05842	0.0207	320.29	320.29	320.29	0	0	1	-29.999999999999996	29.999999999999996								
	45	44	0.000637	0.003876	0.0	2.84	2.84	2.84	0	0	1	-29.999999999999996	29.999999999999996								
	44	200	0.002105	0.019311	0.00684	320.29	320.29	320.29	0	0	1	-29.999999999999996	29.999999999999996								
	47	46	0.000602	0.003454	0.0	63.0	63.0	63.0	0	0	1	-29.999999999999996	29.999999999999996								
	46	156	0.006611	0.063482	0.02049	320.29	320.29	320.29	0	0	1	-29.999999999999996	29.999999999999996								
	238	46	0.003134	0.030093	0.00971	320.29	320.29	320.29	0	0	1	-29.999999999999996	29.999999999999996								
	49	48	0.01331	0.27853	0.0	56.99999999999999	56.99999999999999	56.99999999999999	1.0	0.0	1	-29.999999999999996	29.999999999999996								
	50	48	0.00715	0.16356	0.0	70.0	70.0	70.0	1.0	0.0	1	-29.999999999999996	29.999999999999996								
	51	48	0.000658	0.003672	0.0	0.56	0.56	0.56	0	0	1	-29.999999999999996	29.999999999999996								
	52	48	0.00062	0.003342	0.0	37.95	37.95	37.95	0	0	1	-29.999999999999996	29.999999999999996								
	358	48	0.0045	0.041283	0.01463	320.29	320.29	320.29	0	0	1	-29.999999999999996	29.999999999999996								
	419	48	0.004637	0.044525	0.01437	320.29	320.29	320.29	0	0	1	-29.999999999999996	29.999999999999996								
	54	53	0.00068	0.003061	0.0	51.27	51.27	51.27	0	0	1	-29.999999999999996	29.999999999999996								
	233	53	0.002362	0.021667	0.00768	320.29	320.29	320.29	0	0	1	-29.999999999999996	29.999999999999996								
	53	276	0.001502	0.014424	0.00466	320.29	320.29	320.29	0	0	1	-29.999999999999996	29.999999999999996								
	56	55	0.000641	0.00331	0.0	3.15	3.15	3.15	0	0	1	-29.999999999999996	29.999999999999996								
	55	66	0.00433	0.041575	0.01342	320.29	320.29	320.29	0	0	1	-29.999999999999996	29.999999999999996								
	55	500	0.004481	0.041102	0.01457	320.29	320.29	320.29	0	0	1	-29.999999999999996	29.999999999999996								
	58	57	0.00012	0.01762	0.0	675.0	675.0	675.0	1.0	0.0	1	-29.999999999999996	29.999999999999996								
	58	57	0.00012	0.01762	0.0	675.0	675.0	675.0	1.0	0.0	1	-29.999999999999996	29.999999999999996								
	57	123	0.001682	0.024427	0.42627	1493.89	1493.89	1493.89	0	0	1	-29.999999999999996	29.999999999999996								
	440	57	0.000601	0.008726	0.15227	1493.89	1493.89	1493.89	0	0	1	-29.999999999999996	29.999999999999996								
	59	58	0.00062	0.003848	0.0	252.93	252.93	252.93	0	0	1	-29.999999999999996	29.999999999999996								
	58	253	0.004532	0.04352	0.01405	320.29	320.29	320.29	0	0	1	-29.999999999999996	29.999999999999996								
	322	58	0.002019	0.019385	0.00626	320.29	320.29	320.29	0	0	1	-29.999999999999996	29.999999999999996								
	322	58	0.00202	0.01939	0.00626	320.3	320.3	320.3	0	0	1	-29.999999999999996	29.999999999999996								
	61	60	0.000529	0.003518	0.0	0.32	0.32	0.32	0	0	1	-29.999999999999996	29.999999999999996								
	60	131	0.001985	0.018208	0.00645	320.29	320.29	320.29	0	0	1	-29.999999999999996	29.999999999999996								
	466	60	0.002011	0.019314	0.00623	320.29	320.29	320.29	0	0	1	-29.999999999999996	29.999999999999996								
	63	62	0.0032	0.16353	0.0	70.0	70.0	70.0	1.0	0.0	1	-29.999999999999996	29.999999999999996								
	64	62	0.000661	0.003274	0.0	45.58	45.58	45.58	0	0	1	-29.999999999999996	29.999999999999996								
	287	62	0.005453	0.052365	0.0169	320.29	320.29	320.29	0	0	1	-29.999999999999996	29.999999999999996								
	62	457	0.007267	0.069786	0.02253	320.29	320.29	320.29	0	0	1	-29.999999999999996	29.999999999999996								
	66	65	0.000808	0.03088	0.0	405.0	405.0	405.0	1.0	0.0	1	-29.999999999999996	29.999999999999996								
	80	65	0.00096	0.013773	0.24648	1493.89	1493.89	1493.89	0	0	1	-29.999999999999996	29.999999999999996								
	65	297	0.00092	0.013192	0.23607	1493.89	1493.89	1493.89	0	0	1	-29.999999999999996	29.999999999999996								
	67	66	0.000661	0.003359	0.0	6.709999999999999	6.709999999999999	6.709999999999999	0	0	1	-29.999999999999996	29.999999999999996								
	66	308	0.00718	0.06895	0.02226	320.29	320.29	320.29	0	0	1	-29.999999999999996	29.999999999999996								
	69	68	0.000669	0.003998	0.0	27.639999999999997	27.639999999999997	27.639999999999997	0	0	1	-29.999999999999996	29.999999999999996								
	68	295	0.004469	0.040995	0.01453	320.29	320.29	320.29	0	0	1	-29.999999999999996	29.999999999999996								
	68	314	0.001805	0.017334	0.0056	320.29	320.29	320.29	0	0	1	-29.999999999999996	29.999999999999996								
	71	70	0.00103	0.04472	0.0	133.0	133.0	133.0	1.0	0.0	1	-29.999999999999996	29.999999999999996								
	72	70	0.00292	0.14481	0.0	60.0	60.0	60.0	1.0	0.0	1	-29.999999999999996	29.999999999999996								
	73	70	0.012696	0.27303	0.0	49.0	49.0	49.0	1.0	0.0	1	-29.999999999999996	29.999999999999996								
	216	70	0.002596	0.02381	0.00844	320.29	320.29	320.29	0	0	1	-29.999999999999996	29.999999999999996								
	70	490	0.002127	0.019512	0.00691	320.29	320.29	320.29	0	0	1	-29.999999999999996	29.999999999999996								
	75	74	0.000584	0.003339	0.0	8.81	8.81	8.81	0	0	1	-29.999999999999996	29.999999999999996								
	74	189	0.005632	0.054084	0.01746	320.29	320.29	320.29	0	0	1	-29.999999999999996	29.999999999999996								
	240	74	0.004434	0.04067	0.01441	320.29	320.29	320.29	0	0	1	-29.999999999999996	29.999999999999996								
	77	76	0.000695	0.003313	0.0	12.16	12.16	12.16	0	0	1	-29.999999999999996	29.999999999999996								
	452	76	0.002012	0.019322	0.00624	320.29	320.29	320.29	0	0	1	-29.999999999999996	29.999999999999996								
	79	78	0.000622	0.003279	0.0	0.52	0.52	0.52	0	0	1	-29.999999999999996	29.999999999999996								
	78	328	0.005432	0.049829	0.01766	320.29	320.29	320.29	0	0	1	-29.999999999999996	29.999999999999996								
	78	387	0.002354	0.022609	0.0073	320.29	320.29	320.29	0	0	1	-29.999999999999996	29.999999999999996								
	81	80	0.00065	0.03481	0.0	529.0	529.0	529.0	1.0	0.0	1	-29.999999999999996	29.999999999999996								
	82	80	0.00043	0.03113	0.0	628.0	628.0	628.0	1.0	0.0	1	-29.999999999999996	29.999999999999996								
	407	80	0.000818	0.010825	0.22813	1493.89	1493.89	1493.89	0	0	1	-29.999999999999996	29.999999999999996								
	149	81	0.002879	0.02641	0.00936	320.29	320.29	320.29	0	0	1	-29.999999999999996	29.999999999999996								
	84	83	0.000638	0.003655	0.0	105.41	105.41	105.41	0	0	1	-29.999999999999996	29.999999999999996								
	83	342	0.004116	0.03952	0.01276	320.29	320.29	320.29	0	0	1	-29.999999999999996	29.999999999999996								
	86	85	0.000652	0.003901	0.0	30.04	30.04	30.04	0	0	1	-29.999999999999996	29.999999999999996								
	272	85	0.004412	0.04047	0.01434	320.29	320.29	320.29	0	0	1	-29.999999999999996	29.999999999999996								
	88	87	0.000623	0.003569	0.0	7.690000000000001	7.690000000000001	7.690000000000001	0	0	1	-29.999999999999996	29.999999999999996								
	87	141	0.001846	0.017727	0.00572	320.29	320.29	320.29	0	0	1	-29.999999999999996	29.999999999999996								
	87	143	0.00382	0.035043	0.01242	320.29	320.29	320.29	0	0	1	-29.999999999999996	29.999999999999996								
	423	87	0.001836	0.017627	0.00569	320.29	320.29	320.29	0	0	1	-29.999999999999996	29.999999999999996								
	90	89	0.000554	0.003864	0.0	10.48	10.48	10.48	0	0	1	-29.999999999999996	29.999999999999996								
	89	187	0.002116	0.020322	0.00656	320.29	320.29	320.29	0	0	1	-29.999999999999996	29.999999999999996								
	89	457	0.009012	0.082666	0.02929	320.29	320.29	320.29	0	0	1	-29.999999999999996	29.999999999999996								
	92	91	0.000572	0.003617	0.0	104.24	104.24	104.24	0	0	1	-29.999999999999996	29.999999999999996								
	91	133	0.00504	0.048401	0.01562	320.29	320.29	320.29	0	0	1	-29.999999999999996	29.999999999999996								
	94	93	0.000536	0.003281	0.0	8.18	8.18	8.18	0	0	1	-29.999999999999996	29.999999999999996								
	269	93	0.003921	0.035965	0.01275	320.29	320.29	320.29	0	0	1	-29.999999999999996	29.999999999999996								
	336	93	0.005795	0.053155	0.01884	320.29	320.29	320.29	0	0	1	-29.999999999999996	29.999999999999996								
	96	95	0.000563	0.003253	0.0	56.18	56.18	56.18	0	0	1	-29.999999999999996	29.999999999999996								
	95	170	0.002111	0.020268	0.00654	320.29	320.29	320.29	0	0	1	-29.999999999999996	29.999999999999996								
	95	369	0.004094	0.039316	0.01269	320.29	320.29	320.29	0	0	1	-29.999999999999996	29.999999999999996								
	98	97	0.000569	0.003986	0.0	66.43	66.43	66.43	0	0	1	-29.999999999999996	29.999999999999996								
	181	97	0.002992	0.028734	0.00928	320.29	320.29	320.29	0	0	1	-29.999999999999996	29.999999999999996								
	358	97	0.002676	0.024552	0.0087	320.29	320.29	320.29	0	0	1	-29.999999999999996	29.999999999999996								
	100	99	0.000644	0.00362	0.0	22.69	22.69	22.69	0	0	1	-29.999999999999996	29.999999999999996								
	101	99	0.000699	0.003294	0.0	1.37	1.37	1.37	0	0	1	-29.999999999999996	29.999999999999996								
	99	465	0.002689	0.02582	0.00834	320.29	320.29	320.29	0	0	1	-29.999999999999996	29.999999999999996								
	472	99	0.003318	0.031864	0.01029	320.29	320.29	320.29	0	0	1	-29.999999999999996	29.999999999999996								
	103	102	0.000614	0.003874	0.0	64.6	64.6	64.6	0	0	1	-29.999999999999996	29.999999999999996								
	102	308	0.00565	0.054254	0.01751	320.29	320.29	320.29	0	0	1	-29.999999999999996	29.999999999999996								
	419	102	0.003638	0.034938	0.01128	320.29	320.29	320.29	0	0	1	-29.999999999999996	29.999999999999996								
	105	104	0.000673	0.003751	0.0	144.23	144.23	144.23	0	0	1	-29.999999999999996	29.999999999999996								
	104	191	0.005177	0.047485	0.01683	320.29	320.29	320.29	0	0	1	-29.999999999999996	29.999999999999996								
	107	106	0.000575	0.003206	0.0	24.46	24.46	24.46	0	0	1	-29.999999999999996	29.999999999999996								
	106	191	0.004468	0.042904	0.01385	320.29	320.29	320.29	0	0	1	-29.999999999999996	29.999999999999996								
	236	106	0.003115	0.029915	0.00966	320.29	320.29	320.29	0	0	1	-29.999999999999996	29.999999999999996								
	109	108	0.000658	0.00301	0.0	62.91	62.91	62.91	0	0	1	-29.999999999999996	29.999999999999996								
	108	472	0.002033	0.019521	0.0063	320.29	320.29	320.29	0	0	1	-29.999999999999996	29.999999999999996								
	108	495	0.003611	0.034672	0.01119	320.29	320.29	320.29	0	0	1	-29.999999999999996	29.999999999999996								
	111	110	0.000527	0.003708	0.0	87.02	87.02	87.02	0	0	1	-29.999999999999996	29.999999999999996								
	274	110	0.003126	0.030018	0.00969	320.29	320.29	320.29	0	0	1	-29.999999999999996	29.999999999999996								
	110	316	0.003439	0.033025	0.01066	320.29	320.29	320.29	0	0	1	-29.999999999999996	29.999999999999996								
	113	112	0.000644	0.003119	0.0	72.98	72.98	72.98	0	0	1	-29.999999999999996	29.999999999999996								
	193	112	0.002867	0.027534	0.00889	320.29	320.29	320.29	0	0	1	-29.999999999999996	29.999999999999996								
	112	236	0.006329	0.060777	0.01962	320.29	320.29	320.29	0	0	1	-29.999999999999996	29.999999999999996								
	112	283	0.008619	0.08276	0.02672	320.29	320.29	320.29	0	0	1	-29.999999999999996	29.999999999999996								
	372	112	0.002007	0.019267	0.00622	320.29	320.29	320.29	0	0	1	-29.999999999999996	29.999999999999996								
	112	499	0.005577	0.051155	0.01813	320.29	320.29	320.29	0	0	1	-29.999999999999996	29.999999999999996								
	115	114	0.000506	0.00336	0.0	6.74	6.74	6.74	0	0	1	-29.999999999999996	29.999999999999996								
	116	114	0.000505	0.003411	0.0	5.26	5.26	5.26	0	0	1	-29.999999999999996	29.999999999999996								
	114	191	0.005557	0.053364	0.01723	320.29	320.29	320.29	0	0	1	-29.999999999999996	29.999999999999996								
	114	312	0.006609	0.063462	0.02049	320.29	320.29	320.29	0	0	1	-29.999999999999996	29.999999999999996								
	118	117	0.000634	0.003851	0.0	12.8	12.8	12.8	0	0	1	-29.999999999999996	29.999999999999996								
	117	426	0.003172	0.029099	0.01031	320.29	320.29	320.29	0	0	1	-29.999999999999996	29.999999999999996								
	490	117	0.002999	0.027508	0.00975	320.29	320.29	320.29	0	0	1	-29.999999999999996	29.999999999999996								
	120	119	0.000556	0.003059	0.0	46.58	46.58	46.58	0	0	1	-29.999999999999996	29.999999999999996								
	119	129	0.00235	0.021554	0.00764	320.29	320.29	320.29	0	0	1	-29.999999999999996	29.999999999999996								
	253	119	0.001494	0.01435	0.00463	320.29	320.29	320.29	0	0	1	-29.999999999999996	29.999999999999996								
	122	121	0.000555	0.003846	0.0	70.42	70.42	70.42	0	0	1	-29.999999999999996	29.999999999999996								
	121	276	0.002548	0.024463	0.0079	320.29	320.29	320.29	0	0	1	-29.999999999999996	29.999999999999996								
	121	287	0.007088	0.068058	0.02197	320.29	320.29	320.29	0	0	1	-29.999999999999996	29.999999999999996								
	124	123	0.0002	0.01438	0.0	488.0	488.0	488.0	1.0	0.0	1	-29.999999999999996	29.999999999999996								
	125	123	0.00028	0.04064	0.0	346.0	346.0	346.0	1.0	0.0	1	-29.999999999999996	29.999999999999996								
	126	123	0.00015	0.02189	0.0	352.0	352.0	352.0	1.0	0.0	1	-29.999999999999996	29.999999999999996								
...
];

%%-----  OPF Data  -----%%
%% cost data
%    1    startup    shutdown    n    x1    y1    ...    xn    yn
%    2    startup    shutdown    n    c(n-1)    ...    c0
mpc.gencost = [
	2	0.0	0.0	3	0.002	19.0	1424.48
	2	0.0	0.0	3	0.0	5.867000000000001	1266.47
	2	0.0	0.0	3	0.0	8.412	1319.13
	2	0.0	0.0	3	0.0	9.275	1076.21
	2	0.0	0.0	3	0.002	19.0	236.03
	2	0.0	0.0	3	0.002	19.0	236.07
	2	0.0	0.0	3	0.002	23.152000000000005	604.8
	2	0.0	0.0	3	0.0	0.0	0.0
	2	0.0	0.0	3	0.0	0.0	0.0
	2	0.0	0.0	3	0.0	0.0	0.0
	2	0.0	0.0	3	0.0	0.0	0.0
	2	0.0	0.0	3	0.0	0.0	0.0
	2	0.0	0.0	3	0.0	0.0	0.0
	2	0.0	0.0	3	0.0	0.0	0.0
	2	0.0	0.0	3	0.0	0.0	0.0
	2	0.0	0.0	3	0.0	6.87	1363.88
	2	0.0	0.0	3	0.0	8.143	1060.19
	2	0.0	0.0	3	0.0	0.0	0.0
	2	0.0	0.0	3	0.0	0.0	0.0
	2	0.0	0.0	3	0.0	0.0	0.0
	2	0.0	0.0	3	0.002	19.0	1081.02
	2	0.0	0.0	3	0.002	19.0	879.08
	2	0.0	0.0	3	0.0	0.0	0.0
	2	0.0	0.0	3	0.0	0.0	0.0
	2	0.0	0.0	3	0.0	0.0	0.0
	2	0.0	0.0	3	0.0	0.0	0.0
	2	0.0	0.0	3	0.002	19.0	236.08
	2	0.0	0.0	3	0.002	24.033	799.8
	2	0.0	0.0	3	0.002	24.033	799.8
	2	0.0	0.0	3	0.002	26.742000000000004	2763.98
	2	0.0	0.0	3	0.002	19.0	236.11
	2	0.0	0.0	3	0.002	19.0	236.09
	2	0.0	0.0	3	0.002	19.0	236.08
	2	0.0	0.0	3	0.002	19.0	236.14
	2	0.0	0.0	3	0.002	19.0	236.03
	2	0.0	0.0	3	0.002	23.396	658.8
	2	0.0	0.0	3	0.002	23.202	615.9
	2	0.0	0.0	3	0.002	23.816	751.8
	2	0.0	0.0	3	0.002	19.0	236.08
	2	0.0	0.0	3	0.002	19.0	236.08
	2	0.0	0.0	3	0.0	0.0	0.0
	2	0.0	0.0	3	0.0	0.0	0.0
	2	0.0	0.0	3	0.0	0.0	0.0
	2	0.0	0.0	3	0.0	0.0	0.0
	2	0.0	0.0	3	0.0	0.0	0.0
	2	0.0	0.0	3	0.0	0.0	0.0
	2	0.0	0.0	3	0.0	0.0	0.0
	2	0.0	0.0	3	0.002	23.141	602.4
	2	0.0	0.0	3	0.002	23.205000000000002	616.5
	2	0.0	0.0	3	0.002	23.152000000000005	604.8
	2	0.0	0.0	3	0.002	23.198000000000004	615.0
	2	0.0	0.0	3	0.002	24.305	859.99
	2	0.0	0.0	3	0.002	24.305	859.99
	2	0.0	0.0	3	0.002	24.305	859.99
	2	0.0	0.0	3	0.002	23.919	774.6
	2	0.0	0.0	3	0.002	23.919	774.6
	2	0.0	0.0	3	0.002	23.919	774.6
	2	0.0	0.0	3	0.002	23.919	774.6
	2	0.0	0.0	3	0.002	23.919	774.6
	2	0.0	0.0	3	0.002	23.808000000000003	750.0
	2	0.0	0.0	3	0.002	24.059	805.42
	2	0.0	0.0	3	0.002	24.059	805.42
	2	0.0	0.0	3	0.002	24.059	805.42
	2	0.0	0.0	3	0.002	24.059	805.42
	2	0.0	0.0	3	0.002	23.883	766.65
	2	0.0	0.0	3	0.0	0.0	0.0
	2	0.0	0.0	3	0.0	0.0	0.0
	2	0.0	0.0	3	0.0	0.0	0.0
	2	0.0	0.0	3	0.0	0.0	0.0
	2	0.0	0.0	3	0.0	0.0	0.0
	2	0.0	0.0	3	0.0	0.0	0.0
	2	0.0	0.0	3	0.0	0.0	0.0
	2	0.0	0.0	3	0.0	0.0	0.0
	2	0.0	0.0	3	0.0	0.0	0.0
	2	0.0	0.0	3	0.0	0.0	0.0
	2	0.0	0.0	3	0.002	23.862	762.0
	2	0.0	0.0	3	0.002	24.316	862.5
	2	0.0	0.0	3	0.002	23.152000000000005	604.95
	2	0.0	0.0	3	0.002	24.641	934.24
	2	0.0	0.0	3	0.002	26.152000000000005	1344.19
	2	0.0	0.0	3	0.0	0.0	0.0
	2	0.0	0.0	3	0.002	19.0	236.19
	2	0.0	0.0	3	0.0	0.0	0.0
	2	0.0	0.0	3	0.0	0.0	0.0
	2	0.0	0.0	3	0.0	0.0	0.0
	2	0.0	0.0	3	0.0	0.0	0.0
	2	0.0	0.0	3	0.0	0.0	0.0
	2	0.0	0.0	3	0.002	19.0	236.15
	2	0.0	0.0	3	0.0	0.0	0.0
	2	0.0	0.0	3	0.0	0.0	0.0
];

